# generated using pymatgen
data_NaCl
_symmetry_space_group_name_H-M   'P 1'
_cell_length_a   7.00146522
_cell_length_b   7.00146522
_cell_length_c   5.46560524
_cell_angle_alpha   90.00000000
_cell_angle_beta   90.00000000
_cell_angle_gamma   90.00000000
_symmetry_Int_Tables_number   1
_chemical_formula_structural   NaCl
_chemical_formula_sum   'Na4 Cl4'
_cell_volume   267.92678489
_cell_formula_units_Z   4
loop_
 _symmetry_equiv_pos_site_id
 _symmetry_equiv_pos_as_xyz
  1  'x, y, z'
loop_
 _atom_site_type_symbol
 _atom_site_label
 _atom_site_symmetry_multiplicity
 _atom_site_fract_x
 _atom_site_fract_y
 _atom_site_fract_z
 _atom_site_occupancy
  Na  Na0  1  0.95650177  0.84428082  0.34646556  1.0
  Na  Na1  1  0.09343401  0.22957737  0.52956141  1.0
  Na  Na2  1  0.77977871  0.84227357  0.62247237  1.0
  Na  Na3  1  0.39842860  0.74118681  0.81511117  1.0
  Cl  Cl4  1  0.05930506  0.21941811  0.77899848  1.0
  Cl  Cl5  1  0.89363534  0.25388623  0.40021615  1.0
  Cl  Cl6  1  0.91515812  0.87791093  0.07965855  1.0
  Cl  Cl7  1  0.24493539  0.06019322  0.73599060  1.0
