# generated using pymatgen
data_NaCl
_symmetry_space_group_name_H-M   'P 1'
_cell_length_a   5.53414731
_cell_length_b   5.53414731
_cell_length_c   8.02797092
_cell_angle_alpha   90.00000000
_cell_angle_beta   90.00000000
_cell_angle_gamma   90.00000000
_symmetry_Int_Tables_number   1
_chemical_formula_structural   NaCl
_chemical_formula_sum   'Na4 Cl4'
_cell_volume   245.87095098
_cell_formula_units_Z   4
loop_
 _symmetry_equiv_pos_site_id
 _symmetry_equiv_pos_as_xyz
  1  'x, y, z'
loop_
 _atom_site_type_symbol
 _atom_site_label
 _atom_site_symmetry_multiplicity
 _atom_site_fract_x
 _atom_site_fract_y
 _atom_site_fract_z
 _atom_site_occupancy
  Na  Na0  1  0.65092612  0.00000000  0.33446267  1.0
  Na  Na1  1  0.70153743  0.00000000  0.56224571  1.0
  Na  Na2  1  0.00000000  0.43549608  0.23402078  1.0
  Na  Na3  1  0.00000000  0.66835234  0.32250417  1.0
  Cl  Cl4  1  0.89167814  0.00000000  0.53650554  1.0
  Cl  Cl5  1  0.95000445  0.00000000  0.81207124  1.0
  Cl  Cl6  1  0.00000000  0.14153358  0.20302688  1.0
  Cl  Cl7  1  0.00000000  0.41623145  0.44074299  1.0
