# generated using pymatgen
data_NaCl
_symmetry_space_group_name_H-M   'P 1'
_cell_length_a   5.38787619
_cell_length_b   5.38787619
_cell_length_c   10.70506258
_cell_angle_alpha   90.00000000
_cell_angle_beta   90.00000000
_cell_angle_gamma   120.00000000
_symmetry_Int_Tables_number   1
_chemical_formula_structural   NaCl
_chemical_formula_sum   'Na4 Cl4'
_cell_volume   269.12562837
_cell_formula_units_Z   4
loop_
 _symmetry_equiv_pos_site_id
 _symmetry_equiv_pos_as_xyz
  1  'x, y, z'
loop_
 _atom_site_type_symbol
 _atom_site_label
 _atom_site_symmetry_multiplicity
 _atom_site_fract_x
 _atom_site_fract_y
 _atom_site_fract_z
 _atom_site_occupancy
  Na  Na0  1  0.00000000  0.00000000  0.93844386  1.0
  Na  Na1  1  0.33333333  0.66666667  0.43155510  1.0
  Na  Na2  1  0.66666667  0.33333333  0.57590573  1.0
  Na  Na3  1  0.66666667  0.33333333  0.73089417  1.0
  Cl  Cl4  1  0.00000000  0.00000000  0.71214160  1.0
  Cl  Cl5  1  0.10555339  0.74128110  0.04178085  1.0
  Cl  Cl6  1  0.59205435  0.12574332  0.22406849  1.0
  Cl  Cl7  1  0.41111714  0.61826329  0.90923503  1.0
