# generated using pymatgen
data_NaCl
_symmetry_space_group_name_H-M   'P 1'
_cell_length_a   3.88203930
_cell_length_b   10.27214837
_cell_length_c   8.98350314
_cell_angle_alpha   90.00000000
_cell_angle_beta   135.14928658
_cell_angle_gamma   90.00000000
_symmetry_Int_Tables_number   1
_chemical_formula_structural   NaCl
_chemical_formula_sum   'Na4 Cl4'
_cell_volume   252.64889976
_cell_formula_units_Z   4
loop_
 _symmetry_equiv_pos_site_id
 _symmetry_equiv_pos_as_xyz
  1  'x, y, z'
loop_
 _atom_site_type_symbol
 _atom_site_label
 _atom_site_symmetry_multiplicity
 _atom_site_fract_x
 _atom_site_fract_y
 _atom_site_fract_z
 _atom_site_occupancy
  Na  Na0  1  0.24202640  0.33599052  0.86269844  1.0
  Na  Na1  1  0.92282480  0.36522846  0.89428008  1.0
  Na  Na2  1  0.87182320  0.17722341  0.88593927  1.0
  Na  Na3  1  0.34745906  0.08721787  0.97071373  1.0
  Cl  Cl4  1  0.75353359  0.24534497  0.75246397  1.0
  Cl  Cl5  1  0.55126857  0.55073779  0.64974185  1.0
  Cl  Cl6  1  0.77717232  0.93847206  0.83663340  1.0
  Cl  Cl7  1  0.52513889  0.89776750  0.41017609  1.0
