# generated using pymatgen
data_NaCl
_symmetry_space_group_name_H-M   'P 1'
_cell_length_a   5.05373418
_cell_length_b   5.05373418
_cell_length_c   14.45972838
_cell_angle_alpha   90.00000000
_cell_angle_beta   90.00000000
_cell_angle_gamma   90.00000000
_symmetry_Int_Tables_number   1
_chemical_formula_structural   NaCl
_chemical_formula_sum   'Na4 Cl4'
_cell_volume   369.30477645
_cell_formula_units_Z   4
loop_
 _symmetry_equiv_pos_site_id
 _symmetry_equiv_pos_as_xyz
  1  'x, y, z'
loop_
 _atom_site_type_symbol
 _atom_site_label
 _atom_site_symmetry_multiplicity
 _atom_site_fract_x
 _atom_site_fract_y
 _atom_site_fract_z
 _atom_site_occupancy
  Na  Na0  1  0.00000000  0.50000000  0.62743662  1.0
  Na  Na1  1  0.50000000  0.00000000  0.08371669  1.0
  Na  Na2  1  0.50000000  0.00000000  0.73790687  1.0
  Na  Na3  1  0.00000000  0.50000000  0.90555926  1.0
  Cl  Cl4  1  0.00000000  0.00000000  0.67382509  1.0
  Cl  Cl5  1  0.50000000  0.50000000  0.32350676  1.0
  Cl  Cl6  1  0.00000000  0.00000000  0.44857507  1.0
  Cl  Cl7  1  0.50000000  0.50000000  0.11256516  1.0
